<configuration>
    <input>
        <net-file value="parking_on_off_road.net.xml"/>

        <additional-files value="parking_on_off_road.add.xml"/>
    </input>
</configuration>