<?xml version="1.0" encoding="UTF-8"?>

<!-- generated on 2024-10-16 12:05:26 by Eclipse SUMO netedit Version v1_20_0+2013-dea7f8276dd
<neteditConfiguration xmlns:xsi="http://www.w3.org/2001/XMLSchema-instance" xsi:noNamespaceSchemaLocation="http://sumo.dlr.de/xsd/neteditConfiguration.xsd">

    <input>
        <additional-files value="/home/dade/Scrivania/tirocinio/examples/tirocinio/parking_on_off_road/parking_on_off_road.add.xml"/>
        <sumo-net-file value="/home/dade/Scrivania/tirocinio/examples/tirocinio/parking_on_off_road/parking_on_off_road.net.xml"/>
    </input>

    <output>
        <output-file value="/home/dade/Scrivania/tirocinio/examples/tirocinio/parking_on_off_road/parking_on_off_road.net.xml"/>
    </output>

    <processing>
        <geometry.min-radius.fix.railways value="false"/>
        <geometry.max-grade.fix value="false"/>
        <offset.disable-normalization value="true"/>
        <lefthand value="0"/>
    </processing>

    <junctions>
        <no-turnarounds value="true"/>
        <junctions.corner-detail value="5"/>
        <junctions.limit-turn-speed value="5.50"/>
        <rectangular-lane-cut value="0"/>
    </junctions>

    <pedestrian>
        <walkingareas value="0"/>
    </pedestrian>

</neteditConfiguration>
-->

<net version="1.20" junctionCornerDetail="5" limitTurnSpeed="5.50" xmlns:xsi="http://www.w3.org/2001/XMLSchema-instance" xsi:noNamespaceSchemaLocation="http://sumo.dlr.de/xsd/net_file.xsd">

    <location netOffset="0.00,0.00" convBoundary="-497.15,-370.28,435.82,170.37" origBoundary="-10000000000.00,-10000000000.00,10000000000.00,10000000000.00" projParameter="!"/>

    <edge id=":J0_0" function="internal">
        <lane id=":J0_0_0" index="0" speed="6.07" length="7.86" shape="-17.40,89.61 -19.54,89.35 -21.07,88.46 -21.99,86.95 -22.30,84.81"/>
    </edge>
    <edge id=":J0_1" function="internal">
        <lane id=":J0_1_0" index="0" speed="3.90" length="2.62" shape="-19.10,84.81 -19.00,85.52 -18.69,86.03 -18.18,86.32 -17.47,86.41"/>
    </edge>
    <edge id=":J1_0" function="internal">
        <lane id=":J1_0_0" index="0" speed="6.08" length="7.53" shape="123.42,81.99 123.10,84.01 122.21,85.48 120.75,86.37 118.72,86.71"/>
    </edge>
    <edge id=":J1_1" function="internal">
        <lane id=":J1_1_0" index="0" speed="3.91" length="2.51" shape="118.66,83.51 119.33,83.40 119.82,83.10 120.11,82.61 120.22,81.93"/>
    </edge>
    <edge id=":J10_0" function="internal">
        <lane id=":J10_0_0" index="0" speed="6.84" length="9.83" shape="-12.60,-39.19 -15.15,-38.76 -16.99,-37.55 -18.11,-35.58 -18.52,-32.83"/>
    </edge>
    <edge id=":J10_1" function="internal">
        <lane id=":J10_1_0" index="0" speed="13.89" length="14.92" shape="-12.60,-39.19 -16.34,-39.06 -20.05,-38.80 -23.75,-38.40 -27.45,-37.88"/>
    </edge>
    <edge id=":J10_2" function="internal">
        <lane id=":J10_2_0" index="0" speed="7.92" length="14.37" shape="-12.60,-39.19 -16.53,-39.69 -19.30,-41.34 -20.91,-44.13 -21.36,-48.07"/>
    </edge>
    <edge id=":J10_3" function="internal">
        <lane id=":J10_3_0" index="0" speed="6.41" length="9.04" shape="-18.16,-47.97 -17.88,-45.50 -16.87,-43.74 -15.13,-42.71 -12.66,-42.39"/>
    </edge>
    <edge id=":J10_4" function="internal">
        <lane id=":J10_4_0" index="0" speed="13.89" length="15.14" shape="-18.16,-47.97 -18.52,-32.83"/>
    </edge>
    <edge id=":J10_5" function="internal">
        <lane id=":J10_5_0" index="0" speed="8.84" length="4.08" shape="-18.16,-47.97 -18.84,-44.09 -18.91,-43.97"/>
    </edge>
    <edge id=":J10_12" function="internal">
        <lane id=":J10_12_0" index="0" speed="8.84" length="11.00" shape="-18.91,-43.97 -20.61,-41.11 -23.48,-39.04 -27.45,-37.88"/>
    </edge>
    <edge id=":J10_6" function="internal">
        <lane id=":J10_6_0" index="0" speed="7.50" length="10.58" shape="-27.94,-41.04 -25.13,-41.86 -23.10,-43.30 -21.84,-45.37 -21.36,-48.07"/>
    </edge>
    <edge id=":J10_7" function="internal">
        <lane id=":J10_7_0" index="0" speed="13.89" length="15.36" shape="-27.94,-41.04 -24.17,-41.57 -20.32,-41.98 -16.46,-42.26 -12.66,-42.39"/>
    </edge>
    <edge id=":J10_8" function="internal">
        <lane id=":J10_8_0" index="0" speed="7.72" length="14.90" shape="-27.94,-41.04 -23.76,-41.09 -20.79,-39.74 -19.04,-36.99 -18.52,-32.83"/>
    </edge>
    <edge id=":J10_9" function="internal">
        <lane id=":J10_9_0" index="0" speed="6.16" length="9.05" shape="-21.72,-32.89 -22.04,-35.42 -23.10,-37.09 -24.90,-37.91 -27.45,-37.88"/>
    </edge>
    <edge id=":J10_10" function="internal">
        <lane id=":J10_10_0" index="0" speed="13.89" length="15.18" shape="-21.72,-32.89 -21.36,-48.07"/>
    </edge>
    <edge id=":J10_11" function="internal">
        <lane id=":J10_11_0" index="0" speed="8.28" length="4.39" shape="-21.72,-32.89 -21.09,-36.99 -20.97,-37.20"/>
    </edge>
    <edge id=":J10_13" function="internal">
        <lane id=":J10_13_0" index="0" speed="8.28" length="10.48" shape="-20.97,-37.20 -19.37,-39.94 -16.56,-41.74 -12.66,-42.39"/>
    </edge>
    <edge id=":J16_0" function="internal">
        <lane id=":J16_0_0" index="0" speed="7.62" length="7.73" shape="-121.23,-23.20 -123.28,-22.66 -124.94,-21.74 -126.22,-20.45 -127.12,-18.78"/>
    </edge>
    <edge id=":J16_1" function="internal">
        <lane id=":J16_1_0" index="0" speed="6.58" length="7.35" shape="-127.69,-29.57 -126.65,-27.92 -125.32,-26.83 -123.67,-26.31 -121.72,-26.36"/>
    </edge>
    <edge id=":J16_2" function="internal">
        <lane id=":J16_2_0" index="0" speed="10.97" length="11.09" shape="-127.69,-29.57 -126.70,-26.80 -126.27,-24.08 -126.41,-21.41 -127.12,-18.78"/>
    </edge>
    <edge id=":J17_0" function="internal">
        <lane id=":J17_0_0" index="0" speed="6.65" length="6.66" shape="-132.69,-3.58 -133.43,-5.16 -134.49,-6.34 -135.88,-7.10 -137.59,-7.45"/>
    </edge>
    <edge id=":J17_1" function="internal">
        <lane id=":J17_1_0" index="0" speed="10.12" length="7.34" shape="-129.81,-11.66 -130.47,-9.63 -130.61,-8.14 -130.31,-6.63 -129.64,-4.57"/>
    </edge>
    <edge id=":J17_2" function="internal">
        <lane id=":J17_2_0" index="0" speed="7.47" length="9.56" shape="-129.81,-11.66 -130.96,-9.64 -132.64,-8.27 -134.85,-7.54 -137.59,-7.45"/>
    </edge>
    <edge id=":J18_0" function="internal">
        <lane id=":J18_0_0" index="0" speed="7.62" length="7.15" shape="-149.71,-8.38 -151.46,-8.30 -153.07,-7.77 -154.54,-6.79 -155.86,-5.37"/>
    </edge>
    <edge id=":J18_1" function="internal">
        <lane id=":J18_1_0" index="0" speed="9.44" length="10.33" shape="-149.71,-8.38 -152.22,-8.86 -154.46,-9.91 -156.42,-11.53 -158.11,-13.71"/>
    </edge>
    <edge id=":J18_2" function="internal">
        <lane id=":J18_2_0" index="0" speed="6.63" length="6.85" shape="-158.40,-7.32 -157.50,-8.88 -157.15,-10.46 -157.35,-12.07 -158.11,-13.71"/>
    </edge>
    <edge id=":J19_0" function="internal">
        <lane id=":J19_0_0" index="0" speed="7.17" length="6.42" shape="-162.23,-20.27 -163.25,-21.53 -164.50,-22.42 -165.97,-22.96 -167.67,-23.13"/>
    </edge>
    <edge id=":J19_1" function="internal">
        <lane id=":J19_1_0" index="0" speed="8.70" length="9.67" shape="-162.23,-20.27 -163.29,-22.49 -163.71,-24.77 -163.50,-27.11 -162.65,-29.51"/>
    </edge>
    <edge id=":J19_2" function="internal">
        <lane id=":J19_2_0" index="0" speed="6.69" length="6.30" shape="-167.68,-26.33 -166.05,-26.53 -164.67,-27.13 -163.54,-28.13 -162.65,-29.51"/>
    </edge>
    <edge id=":J2_0" function="internal">
        <lane id=":J2_0_0" index="0" speed="13.89" length="14.31" shape="124.18,45.06 123.80,59.36"/>
    </edge>
    <edge id=":J2_1" function="internal">
        <lane id=":J2_1_0" index="0" speed="8.15" length="3.93" shape="124.18,45.06 123.49,48.82 123.43,48.91"/>
    </edge>
    <edge id=":J2_6" function="internal">
        <lane id=":J2_6_0" index="0" speed="8.15" length="10.28" shape="123.43,48.91 121.74,51.51 118.92,53.15 115.05,53.73"/>
    </edge>
    <edge id=":J2_2" function="internal">
        <lane id=":J2_2_0" index="0" speed="6.68" length="9.22" shape="115.01,50.53 117.55,50.16 119.39,49.10 120.53,47.36 120.98,44.94"/>
    </edge>
    <edge id=":J2_3" function="internal">
        <lane id=":J2_3_0" index="0" speed="7.95" length="14.30" shape="115.01,50.53 118.91,51.05 121.68,52.69 123.31,55.46 123.80,59.36"/>
    </edge>
    <edge id=":J2_4" function="internal">
        <lane id=":J2_4_0" index="0" speed="6.45" length="9.03" shape="120.60,59.31 120.29,56.85 119.26,55.09 117.51,54.05 115.05,53.73"/>
    </edge>
    <edge id=":J2_5" function="internal">
        <lane id=":J2_5_0" index="0" speed="13.89" length="14.37" shape="120.60,59.31 120.98,44.94"/>
    </edge>
    <edge id=":J20_0" function="internal">
        <lane id=":J20_0_0" index="0" speed="6.65" length="6.61" shape="-153.39,-49.58 -152.73,-47.98 -151.74,-46.76 -150.40,-45.93 -148.73,-45.49"/>
    </edge>
    <edge id=":J20_1" function="internal">
        <lane id=":J20_1_0" index="0" speed="9.64" length="7.25" shape="-156.79,-41.76 -155.97,-43.71 -155.72,-45.17 -155.93,-46.67 -156.48,-48.74"/>
    </edge>
    <edge id=":J20_2" function="internal">
        <lane id=":J20_2_0" index="0" speed="7.57" length="9.56" shape="-156.79,-41.76 -155.47,-43.69 -153.69,-44.95 -151.44,-45.56 -148.73,-45.49"/>
    </edge>
    <edge id=":J21_0" function="internal">
        <lane id=":J21_0_0" index="0" speed="13.89" length="11.23" shape="-132.97,-49.32 -133.22,-46.14 -133.24,-43.67 -132.80,-41.28 -131.67,-38.34"/>
    </edge>
    <edge id=":J21_1" function="internal">
        <lane id=":J21_1_0" index="0" speed="6.39" length="9.04" shape="-142.23,-44.63 -139.74,-44.66 -137.89,-45.49 -136.70,-47.12 -136.16,-49.56"/>
    </edge>
    <edge id=":J21_2" function="internal">
        <lane id=":J21_2_0" index="0" speed="9.92" length="12.83" shape="-142.23,-44.63 -138.50,-43.83 -135.49,-42.51 -133.22,-40.68 -131.67,-38.34"/>
    </edge>
    <edge id=":J22_0" function="internal">
        <lane id=":J22_0_0" index="0" speed="13.89" length="21.86" shape="-9.33,-134.01 -11.28,-129.57 -13.51,-123.85 -15.38,-118.04 -16.22,-113.34"/>
    </edge>
    <edge id=":J22_1" function="internal">
        <lane id=":J22_1_0" index="0" speed="10.99" length="23.39" shape="-9.33,-134.01 -13.15,-127.20 -17.23,-122.66 -21.56,-120.38 -26.15,-120.37"/>
    </edge>
    <edge id=":J22_2" function="internal">
        <lane id=":J22_2_0" index="0" speed="6.34" length="15.40" shape="-9.33,-134.01 -12.12,-131.04 -15.71,-130.53 -18.90,-132.26 -20.47,-136.02"/>
    </edge>
    <edge id=":J22_3" function="internal">
        <lane id=":J22_3_0" index="0" speed="5.54" length="11.30" shape="-17.28,-136.27 -16.67,-132.44 -15.63,-131.01 -14.15,-131.98 -12.23,-135.36"/>
    </edge>
    <edge id=":J22_4" function="internal">
        <lane id=":J22_4_0" index="0" speed="13.89" length="22.96" shape="-17.28,-136.27 -16.93,-131.29 -16.55,-124.81 -16.27,-118.33 -16.22,-113.34"/>
    </edge>
    <edge id=":J22_5" function="internal">
        <lane id=":J22_5_0" index="0" speed="8.85" length="8.25" shape="-17.28,-136.27 -17.30,-128.40 -17.40,-128.03"/>
    </edge>
    <edge id=":J22_12" function="internal">
        <lane id=":J22_12_0" index="0" speed="8.85" length="13.50" shape="-17.40,-128.03 -18.78,-123.12 -21.73,-120.45 -26.15,-120.37"/>
    </edge>
    <edge id=":J22_6" function="internal">
        <lane id=":J22_6_0" index="0" speed="7.56" length="15.53" shape="-25.41,-123.48 -22.84,-123.73 -21.16,-125.90 -20.37,-130.00 -20.47,-136.02"/>
    </edge>
    <edge id=":J22_7" function="internal">
        <lane id=":J22_7_0" index="0" speed="9.95" length="19.02" shape="-25.41,-123.48 -22.00,-123.61 -18.67,-125.63 -15.42,-129.55 -12.23,-135.36"/>
    </edge>
    <edge id=":J22_8" function="internal">
        <lane id=":J22_8_0" index="0" speed="8.88" length="14.98" shape="-25.41,-123.48 -21.30,-122.01 -18.40,-119.83 -16.70,-116.94 -16.22,-113.34"/>
    </edge>
    <edge id=":J22_9" function="internal">
        <lane id=":J22_9_0" index="0" speed="7.54" length="10.56" shape="-19.42,-113.43 -19.78,-115.85 -21.02,-117.82 -23.14,-119.32 -26.15,-120.37"/>
    </edge>
    <edge id=":J22_10" function="internal">
        <lane id=":J22_10_0" index="0" speed="13.89" length="22.62" shape="-19.42,-113.43 -19.46,-118.37 -19.74,-124.73 -20.12,-131.09 -20.47,-136.02"/>
    </edge>
    <edge id=":J22_11" function="internal">
        <lane id=":J22_11_0" index="0" speed="13.89" length="3.80" shape="-19.42,-113.43 -18.74,-117.17"/>
    </edge>
    <edge id=":J22_13" function="internal">
        <lane id=":J22_13_0" index="0" speed="13.89" length="19.35" shape="-18.74,-117.17 -18.53,-118.33 -16.56,-124.57 -14.23,-130.72 -12.23,-135.36"/>
    </edge>
    <edge id=":J23_0" function="internal">
        <lane id=":J23_0_0" index="0" speed="6.92" length="11.58" shape="-117.08,-141.91 -120.94,-142.45 -123.76,-142.00 -125.54,-140.56 -126.28,-138.12"/>
    </edge>
    <edge id=":J23_1" function="internal">
        <lane id=":J23_1_0" index="0" speed="13.89" length="17.50" shape="-117.08,-141.91 -121.10,-142.97 -125.50,-144.40 -129.76,-146.13 -133.38,-148.10"/>
    </edge>
    <edge id=":J23_2" function="internal">
        <lane id=":J23_2_0" index="0" speed="7.38" length="5.90" shape="-117.08,-141.91 -122.46,-143.88 -122.57,-144.02"/>
    </edge>
    <edge id=":J23_12" function="internal">
        <lane id=":J23_12_0" index="0" speed="7.38" length="12.40" shape="-122.57,-144.02 -124.65,-146.51 -123.68,-149.80 -119.53,-153.74"/>
    </edge>
    <edge id=":J23_3" function="internal">
        <lane id=":J23_3_0" index="0" speed="5.52" length="9.51" shape="-117.62,-151.17 -119.77,-149.12 -120.28,-147.42 -119.14,-146.05 -116.35,-145.02"/>
    </edge>
    <edge id=":J23_4" function="internal">
        <lane id=":J23_4_0" index="0" speed="12.40" length="16.13" shape="-117.62,-151.17 -121.21,-148.09 -123.85,-144.88 -125.54,-141.56 -126.28,-138.12"/>
    </edge>
    <edge id=":J23_5" function="internal">
        <lane id=":J23_5_0" index="0" speed="10.10" length="17.11" shape="-117.62,-151.17 -122.21,-148.30 -126.37,-146.83 -130.09,-146.76 -133.38,-148.10"/>
    </edge>
    <edge id=":J23_6" function="internal">
        <lane id=":J23_6_0" index="0" speed="8.92" length="13.19" shape="-131.61,-150.76 -129.25,-149.89 -126.45,-150.09 -123.21,-151.37 -119.53,-153.74"/>
    </edge>
    <edge id=":J23_7" function="internal">
        <lane id=":J23_7_0" index="0" speed="13.89" length="16.38" shape="-131.61,-150.76 -128.15,-148.86 -124.24,-147.29 -120.20,-146.02 -116.35,-145.02"/>
    </edge>
    <edge id=":J23_8" function="internal">
        <lane id=":J23_8_0" index="0" speed="10.19" length="3.18" shape="-131.61,-150.76 -129.23,-148.66"/>
    </edge>
    <edge id=":J23_13" function="internal">
        <lane id=":J23_13_0" index="0" speed="10.19" length="11.24" shape="-129.23,-148.66 -129.03,-148.48 -127.28,-145.61 -126.37,-142.16 -126.28,-138.12"/>
    </edge>
    <edge id=":J23_9" function="internal">
        <lane id=":J23_9_0" index="0" speed="8.97" length="11.02" shape="-129.47,-138.36 -129.52,-141.52 -130.19,-144.19 -131.48,-146.39 -133.38,-148.10"/>
    </edge>
    <edge id=":J23_10" function="internal">
        <lane id=":J23_10_0" index="0" speed="13.38" length="18.87" shape="-129.47,-138.36 -128.61,-142.50 -126.66,-146.44 -123.64,-150.18 -119.53,-153.74"/>
    </edge>
    <edge id=":J23_11" function="internal">
        <lane id=":J23_11_0" index="0" speed="8.33" length="17.31" shape="-129.47,-138.36 -128.38,-142.38 -125.83,-144.83 -121.82,-145.71 -116.35,-145.02"/>
    </edge>
    <edge id=":J24_0" function="internal">
        <lane id=":J24_0_0" index="0" speed="5.63" length="9.28" shape="-26.34,-211.80 -26.92,-214.55 -28.12,-215.93 -29.95,-215.93 -32.41,-214.56"/>
    </edge>
    <edge id=":J24_1" function="internal">
        <lane id=":J24_1_0" index="0" speed="11.25" length="15.65" shape="-26.34,-211.80 -27.07,-215.96 -28.59,-219.50 -30.88,-222.44 -33.95,-224.76"/>
    </edge>
    <edge id=":J24_2" function="internal">
        <lane id=":J24_2_0" index="0" speed="8.10" length="16.45" shape="-26.34,-211.80 -26.13,-216.84 -24.60,-220.32 -21.75,-222.22 -17.58,-222.55"/>
    </edge>
    <edge id=":J24_3" function="internal">
        <lane id=":J24_3_0" index="0" speed="6.63" length="10.64" shape="-17.88,-219.36 -20.42,-219.11 -22.14,-217.81 -23.05,-215.45 -23.15,-212.04"/>
    </edge>
    <edge id=":J24_4" function="internal">
        <lane id=":J24_4_0" index="0" speed="13.65" length="15.60" shape="-17.88,-219.36 -21.69,-219.23 -25.51,-218.26 -29.15,-216.63 -32.41,-214.56"/>
    </edge>
    <edge id=":J24_5" function="internal">
        <lane id=":J24_5_0" index="0" speed="13.89" length="17.05" shape="-17.88,-219.36 -21.89,-220.05 -26.16,-221.29 -30.32,-222.92 -33.95,-224.76"/>
    </edge>
    <edge id=":J24_6" function="internal">
        <lane id=":J24_6_0" index="0" speed="13.89" length="15.68" shape="-32.35,-227.52 -28.92,-225.75 -25.21,-224.27 -21.38,-223.17 -17.58,-222.55"/>
    </edge>
    <edge id=":J24_7" function="internal">
        <lane id=":J24_7_0" index="0" speed="12.28" length="4.03" shape="-32.35,-227.52 -29.13,-225.10"/>
    </edge>
    <edge id=":J24_8" function="internal">
        <lane id=":J24_8_0" index="0" speed="7.62" length="3.44" shape="-32.35,-227.52 -29.67,-225.37"/>
    </edge>
    <edge id=":J24_12" function="internal">
        <lane id=":J24_12_0" index="0" speed="12.28" length="14.72" shape="-29.13,-225.10 -28.63,-224.73 -25.86,-221.22 -24.03,-216.99 -23.15,-212.04"/>
    </edge>
    <edge id=":J24_13" function="internal">
        <lane id=":J24_13_0" index="0" speed="7.62" length="13.29" shape="-29.67,-225.37 -28.69,-224.59 -27.49,-221.45 -28.73,-218.10 -32.41,-214.56"/>
    </edge>
    <edge id=":J24_9" function="internal">
        <lane id=":J24_9_0" index="0" speed="6.00" length="9.83" shape="-34.32,-217.13 -32.08,-219.25 -31.27,-221.23 -31.89,-223.07 -33.95,-224.76"/>
    </edge>
    <edge id=":J24_10" function="internal">
        <lane id=":J24_10_0" index="0" speed="13.89" length="17.86" shape="-34.32,-217.13 -30.71,-219.30 -26.31,-221.13 -21.73,-222.32 -17.58,-222.55"/>
    </edge>
    <edge id=":J24_11" function="internal">
        <lane id=":J24_11_0" index="0" speed="7.39" length="17.09" shape="-34.32,-217.13 -29.80,-219.65 -26.43,-219.64 -24.21,-217.11 -23.15,-212.04"/>
    </edge>
    <edge id=":J25_0" function="internal">
        <lane id=":J25_0_0" index="0" speed="8.32" length="11.09" shape="33.45,-214.68 31.03,-214.41 28.85,-213.26 26.92,-211.22 25.23,-208.29"/>
    </edge>
    <edge id=":J25_1" function="internal">
        <lane id=":J25_1_0" index="0" speed="13.89" length="14.77" shape="33.45,-214.68 18.73,-215.91"/>
    </edge>
    <edge id=":J25_2" function="internal">
        <lane id=":J25_2_0" index="0" speed="13.89" length="14.69" shape="19.03,-219.09 33.67,-217.87"/>
    </edge>
    <edge id=":J25_3" function="internal">
        <lane id=":J25_3_0" index="0" speed="7.53" length="4.43" shape="19.03,-219.09 23.34,-218.07"/>
    </edge>
    <edge id=":J25_6" function="internal">
        <lane id=":J25_6_0" index="0" speed="7.53" length="11.27" shape="23.34,-218.07 23.45,-218.04 25.96,-215.89 26.55,-212.64 25.23,-208.29"/>
    </edge>
    <edge id=":J25_4" function="internal">
        <lane id=":J25_4_0" index="0" speed="5.89" length="9.11" shape="22.33,-209.64 23.10,-212.16 22.75,-214.05 21.30,-215.30 18.73,-215.91"/>
    </edge>
    <edge id=":J25_5" function="internal">
        <lane id=":J25_5_0" index="0" speed="9.58" length="14.96" shape="22.33,-209.64 24.56,-213.43 27.20,-216.06 30.23,-217.54 33.67,-217.87"/>
    </edge>
    <edge id=":J26_0" function="internal">
        <lane id=":J26_0_0" index="0" speed="13.89" length="18.46" shape="-191.39,-177.26 -192.47,-181.42 -193.58,-186.24 -194.48,-191.09 -194.92,-195.35"/>
    </edge>
    <edge id=":J26_1" function="internal">
        <lane id=":J26_1_0" index="0" speed="7.48" length="6.59" shape="-191.39,-177.26 -192.44,-183.76"/>
    </edge>
    <edge id=":J26_6" function="internal">
        <lane id=":J26_6_0" index="0" speed="7.48" length="13.68" shape="-192.44,-183.76 -191.20,-187.08 -187.66,-187.21 -181.82,-184.16"/>
    </edge>
    <edge id=":J26_2" function="internal">
        <lane id=":J26_2_0" index="0" speed="5.46" length="9.97" shape="-183.59,-181.49 -186.47,-183.00 -188.21,-182.93 -188.82,-181.30 -188.30,-178.10"/>
    </edge>
    <edge id=":J26_3" function="internal">
        <lane id=":J26_3_0" index="0" speed="12.33" length="18.47" shape="-183.59,-181.49 -188.47,-185.13 -191.98,-188.65 -194.13,-192.06 -194.92,-195.35"/>
    </edge>
    <edge id=":J26_4" function="internal">
        <lane id=":J26_4_0" index="0" speed="11.31" length="15.45" shape="-191.72,-195.46 -191.04,-192.94 -189.16,-190.22 -186.09,-187.29 -181.82,-184.16"/>
    </edge>
    <edge id=":J26_5" function="internal">
        <lane id=":J26_5_0" index="0" speed="13.89" length="17.72" shape="-191.72,-195.46 -191.30,-191.31 -190.44,-186.71 -189.37,-182.14 -188.30,-178.10"/>
    </edge>
    <edge id=":J27_0" function="internal">
        <lane id=":J27_0_0" index="0" speed="6.70" length="9.34" shape="-195.97,-226.65 -196.40,-229.25 -197.50,-231.10 -199.27,-232.22 -201.70,-232.61"/>
    </edge>
    <edge id=":J27_1" function="internal">
        <lane id=":J27_1_0" index="0" speed="7.87" length="14.49" shape="-195.97,-226.65 -195.53,-230.65 -193.91,-233.44 -191.10,-235.04 -187.10,-235.44"/>
    </edge>
    <edge id=":J27_2" function="internal">
        <lane id=":J27_2_0" index="0" speed="6.35" length="9.04" shape="-187.24,-232.24 -189.73,-231.99 -191.48,-230.99 -192.50,-229.25 -192.77,-226.76"/>
    </edge>
    <edge id=":J27_3" function="internal">
        <lane id=":J27_3_0" index="0" speed="13.89" length="14.47" shape="-187.24,-232.24 -201.70,-232.61"/>
    </edge>
    <edge id=":J27_4" function="internal">
        <lane id=":J27_4_0" index="0" speed="13.89" length="14.58" shape="-201.68,-235.81 -187.10,-235.44"/>
    </edge>
    <edge id=":J27_5" function="internal">
        <lane id=":J27_5_0" index="0" speed="8.16" length="4.12" shape="-201.68,-235.81 -197.90,-235.22 -197.65,-235.07"/>
    </edge>
    <edge id=":J27_6" function="internal">
        <lane id=":J27_6_0" index="0" speed="8.16" length="10.23" shape="-197.65,-235.07 -195.15,-233.52 -193.44,-230.70 -192.77,-226.76"/>
    </edge>
    <edge id=":J28_0" function="internal">
        <lane id=":J28_0_0" index="0" speed="6.08" length="7.57" shape="-263.87,-233.04 -265.91,-233.34 -267.39,-234.23 -268.29,-235.68 -268.64,-237.72"/>
    </edge>
    <edge id=":J28_1" function="internal">
        <lane id=":J28_1_0" index="0" speed="3.91" length="2.52" shape="-265.44,-237.80 -265.32,-237.12 -265.02,-236.63 -264.53,-236.34 -263.85,-236.24"/>
    </edge>
    <edge id=":J29_0" function="internal">
        <lane id=":J29_0_0" index="0" speed="13.89" length="14.26" shape="-269.26,-263.25 -269.82,-277.50"/>
    </edge>
    <edge id=":J29_1" function="internal">
        <lane id=":J29_1_0" index="0" speed="7.99" length="3.90" shape="-269.26,-263.25 -268.81,-267.12"/>
    </edge>
    <edge id=":J29_6" function="internal">
        <lane id=":J29_6_0" index="0" speed="7.99" length="10.32" shape="-268.81,-267.12 -267.22,-269.91 -264.50,-271.62 -260.65,-272.23"/>
    </edge>
    <edge id=":J29_2" function="internal">
        <lane id=":J29_2_0" index="0" speed="6.49" length="9.03" shape="-260.59,-269.04 -263.04,-268.64 -264.76,-267.56 -265.77,-265.79 -266.06,-263.33"/>
    </edge>
    <edge id=":J29_3" function="internal">
        <lane id=":J29_3_0" index="0" speed="8.10" length="14.17" shape="-260.59,-269.04 -264.45,-269.51 -267.28,-271.08 -269.07,-273.74 -269.82,-277.50"/>
    </edge>
    <edge id=":J29_4" function="internal">
        <lane id=":J29_4_0" index="0" speed="6.63" length="9.14" shape="-266.62,-277.67 -266.14,-275.26 -264.98,-273.54 -263.15,-272.54 -260.65,-272.23"/>
    </edge>
    <edge id=":J29_5" function="internal">
        <lane id=":J29_5_0" index="0" speed="13.89" length="14.35" shape="-266.62,-277.67 -266.06,-263.33"/>
    </edge>
    <edge id=":J3_0" function="internal">
        <lane id=":J3_0_0" index="0" speed="13.89" length="14.44" shape="54.10,54.39 39.66,54.50"/>
    </edge>
    <edge id=":J3_1" function="internal">
        <lane id=":J3_1_0" index="0" speed="7.95" length="4.12" shape="54.10,54.39 50.19,53.87 50.04,53.78"/>
    </edge>
    <edge id=":J3_6" function="internal">
        <lane id=":J3_6_0" index="0" speed="7.95" length="10.20" shape="50.04,53.78 47.43,52.23 45.81,49.45 45.33,45.54"/>
    </edge>
    <edge id=":J3_2" function="internal">
        <lane id=":J3_2_0" index="0" speed="6.44" length="9.03" shape="48.53,45.60 48.83,48.07 49.86,49.82 51.60,50.86 54.06,51.19"/>
    </edge>
    <edge id=":J3_3" function="internal">
        <lane id=":J3_3_0" index="0" speed="8.09" length="14.25" shape="48.53,45.60 47.91,49.48 46.22,52.26 43.47,53.93 39.66,54.50"/>
    </edge>
    <edge id=":J3_4" function="internal">
        <lane id=":J3_4_0" index="0" speed="6.61" length="9.18" shape="39.65,51.30 42.09,50.93 43.85,49.85 44.93,48.05 45.33,45.54"/>
    </edge>
    <edge id=":J3_5" function="internal">
        <lane id=":J3_5_0" index="0" speed="13.89" length="14.41" shape="39.65,51.30 54.06,51.19"/>
    </edge>
    <edge id=":J30_0" function="internal">
        <lane id=":J30_0_0" index="0" speed="13.89" length="14.32" shape="-190.72,-270.12 -205.04,-269.99"/>
    </edge>
    <edge id=":J30_1" function="internal">
        <lane id=":J30_1_0" index="0" speed="8.10" length="3.96" shape="-190.72,-270.12 -194.52,-270.67 -194.62,-270.73"/>
    </edge>
    <edge id=":J30_6" function="internal">
        <lane id=":J30_6_0" index="0" speed="8.10" length="10.24" shape="-194.62,-270.73 -197.28,-272.32 -198.99,-275.07 -199.66,-278.91"/>
    </edge>
    <edge id=":J30_2" function="internal">
        <lane id=":J30_2_0" index="0" speed="6.62" length="9.16" shape="-196.46,-279.02 -196.03,-276.53 -194.93,-274.75 -193.16,-273.68 -190.72,-273.32"/>
    </edge>
    <edge id=":J30_3" function="internal">
        <lane id=":J30_3_0" index="0" speed="7.97" length="14.25" shape="-196.46,-279.02 -196.89,-275.13 -198.46,-272.33 -201.18,-270.62 -205.04,-269.99"/>
    </edge>
    <edge id=":J30_4" function="internal">
        <lane id=":J30_4_0" index="0" speed="6.47" length="9.03" shape="-205.10,-273.19 -202.65,-273.59 -200.93,-274.67 -199.93,-276.45 -199.66,-278.91"/>
    </edge>
    <edge id=":J30_5" function="internal">
        <lane id=":J30_5_0" index="0" speed="13.89" length="14.37" shape="-205.10,-273.19 -190.72,-273.32"/>
    </edge>
    <edge id=":J31_0" function="internal">
        <lane id=":J31_0_0" index="0" speed="5.73" length="9.19" shape="-104.35,-265.71 -106.87,-266.75 -108.73,-266.55 -109.92,-265.11 -110.44,-262.44"/>
    </edge>
    <edge id=":J31_1" function="internal">
        <lane id=":J31_1_0" index="0" speed="13.89" length="15.36" shape="-104.35,-265.71 -107.74,-267.46 -111.37,-268.86 -115.12,-269.78 -118.89,-270.12"/>
    </edge>
    <edge id=":J31_2" function="internal">
        <lane id=":J31_2_0" index="0" speed="10.92" length="16.57" shape="-104.35,-265.71 -108.18,-268.44 -110.90,-271.56 -112.51,-275.04 -113.02,-278.90"/>
    </edge>
    <edge id=":J31_3" function="internal">
        <lane id=":J31_3_0" index="0" speed="9.79" length="13.19" shape="-109.82,-278.87 -109.40,-275.88 -108.08,-273.15 -105.86,-270.68 -102.74,-268.47"/>
    </edge>
    <edge id=":J31_4" function="internal">
        <lane id=":J31_4_0" index="0" speed="13.89" length="16.44" shape="-109.82,-278.87 -110.44,-262.44"/>
    </edge>
    <edge id=":J31_5" function="internal">
        <lane id=":J31_5_0" index="0" speed="8.07" length="4.23" shape="-109.82,-278.87 -110.42,-275.04 -110.61,-274.74"/>
    </edge>
    <edge id=":J31_12" function="internal">
        <lane id=":J31_12_0" index="0" speed="8.07" length="10.11" shape="-110.61,-274.74 -112.14,-272.31 -114.96,-270.67 -118.89,-270.12"/>
    </edge>
    <edge id=":J31_6" function="internal">
        <lane id=":J31_6_0" index="0" speed="6.59" length="9.22" shape="-118.89,-273.32 -116.35,-273.67 -114.52,-274.72 -113.41,-276.46 -113.02,-278.90"/>
    </edge>
    <edge id=":J31_7" function="internal">
        <lane id=":J31_7_0" index="0" speed="13.89" length="17.01" shape="-118.89,-273.32 -114.87,-272.92 -110.56,-271.84 -106.38,-270.29 -102.74,-268.47"/>
    </edge>
    <edge id=":J31_8" function="internal">
        <lane id=":J31_8_0" index="0" speed="8.26" length="15.88" shape="-118.89,-273.32 -114.96,-272.64 -112.24,-270.60 -110.73,-267.20 -110.44,-262.44"/>
    </edge>
    <edge id=":J31_9" function="internal">
        <lane id=":J31_9_0" index="0" speed="6.83" length="10.52" shape="-113.64,-262.63 -113.80,-265.90 -114.73,-268.25 -116.43,-269.65 -118.89,-270.12"/>
    </edge>
    <edge id=":J31_10" function="internal">
        <lane id=":J31_10_0" index="0" speed="13.89" length="16.29" shape="-113.64,-262.63 -113.02,-278.90"/>
    </edge>
    <edge id=":J31_11" function="internal">
        <lane id=":J31_11_0" index="0" speed="7.43" length="4.56" shape="-113.64,-262.63 -112.76,-267.10"/>
    </edge>
    <edge id=":J31_13" function="internal">
        <lane id=":J31_13_0" index="0" speed="7.43" length="11.87" shape="-112.76,-267.10 -112.70,-267.41 -110.57,-269.98 -107.25,-270.34 -102.74,-268.47"/>
    </edge>
    <edge id=":J32_0" function="internal">
        <lane id=":J32_0_0" index="0" speed="6.08" length="7.66" shape="-112.13,-233.72 -112.54,-231.67 -113.52,-230.23 -115.04,-229.41 -117.13,-229.21"/>
    </edge>
    <edge id=":J32_1" function="internal">
        <lane id=":J32_1_0" index="0" speed="3.91" length="2.55" shape="-116.99,-232.40 -116.29,-232.47 -115.79,-232.75 -115.46,-233.23 -115.32,-233.91"/>
    </edge>