<?xml version="1.0" encoding="UTF-8"?>

<!-- generated on 2024-11-10 12:47:27 by Eclipse SUMO netedit Version v1_20_0+2013-dea7f8276dd
-->

<additional xmlns:xsi="http://www.w3.org/2001/XMLSchema-instance" xsi:noNamespaceSchemaLocation="http://sumo.dlr.de/xsd/additional_file.xsd">
    <!-- StoppingPlaces -->
    <parkingArea id="pa_0" lane="E82_0" startPos="46.41" endPos="56.41" roadsideCapacity="2"/>
    <parkingArea id="pa_1" lane="-E82_0" startPos="44.81" endPos="54.81" roadsideCapacity="2"/>
    <parkingArea id="pa_10" lane="E50_0" startPos="77.85" endPos="87.85" roadsideCapacity="2"/>
    <parkingArea id="pa_11" lane="-E50_0" startPos="78.25" endPos="88.25" roadsideCapacity="2"/>
    <parkingArea id="pa_12" lane="E31_0" startPos="43.78" endPos="53.78" roadsideCapacity="2"/>
    <parkingArea id="pa_13" lane="-E9_0" startPos="42.41" endPos="52.41" roadsideCapacity="2"/>
    <parkingArea id="pa_14" lane="-E31_0" startPos="40.13" endPos="50.13" roadsideCapacity="2"/>
    <parkingArea id="pa_15" lane="E9_0" startPos="41.42" endPos="51.42" roadsideCapacity="2"/>
    <parkingArea id="pa_16" lane="E12_0" startPos="51.30" endPos="61.30" roadsideCapacity="2"/>
    <parkingArea id="pa_17" lane="-E12_0" startPos="64.09" endPos="74.09" roadsideCapacity="2"/>
    <parkingArea id="pa_18" lane="-E67_0" startPos="61.01" endPos="71.01" roadsideCapacity="2"/>
    <parkingArea id="pa_19" lane="E67_0" startPos="67.53" endPos="77.53" roadsideCapacity="2"/>
    <parkingArea id="pa_2" lane="-E76_0" startPos="42.27" endPos="52.27" roadsideCapacity="2"/>
    <parkingArea id="pa_20" lane="E63_0" startPos="55.13" endPos="65.13" roadsideCapacity="2"/>
    <parkingArea id="pa_22" lane="E56_0" startPos="47.34" endPos="57.34" roadsideCapacity="2"/>
    <parkingArea id="pa_23" lane="-E63_0" startPos="54.01" endPos="64.01" roadsideCapacity="2"/>
    <parkingArea id="pa_24" lane="-E56_0" startPos="34.43" endPos="44.43" roadsideCapacity="2"/>
    <parkingArea id="pa_3" lane="E76_0" startPos="41.58" endPos="51.58" roadsideCapacity="2"/>
    <parkingArea id="pa_4" lane="E72_0" startPos="52.04" endPos="62.04" roadsideCapacity="2"/>
    <parkingArea id="pa_5" lane="-E72_0" startPos="56.02" endPos="66.02" roadsideCapacity="2"/>
    <parkingArea id="pa_6" lane="-E43_0" startPos="39.13" endPos="49.13" roadsideCapacity="2"/>
    <parkingArea id="pa_7" lane="E43_0" startPos="39.55" endPos="49.55" roadsideCapacity="2"/>
    <parkingArea id="pa_8" lane="-E37_0" startPos="35.55" endPos="45.55" roadsideCapacity="2"/>
    <parkingArea id="pa_9" lane="E37_0" startPos="35.60" endPos="45.60" roadsideCapacity="2"/>
</additional>
